#!/bin/ksh
#=============================================================================
# Test the coupling of two dummy models
#=============================================================================
# the namelist filename
testbed_namelist=NAMELIST_${EXPNAME}
#
#-----------------------------------------------------------------------------
start_date="2000-01-01T00:00:00Z"
  end_date="2000-01-03T00:00:00Z"

grids_folder="/pool/data/ICON/oes/grids/AquaPlanets/"
atmo_dyn_grids="AquaPlanet_Icos_0158km_springOpt.nc"
#-----------------------------------------------------------------------------
# write ICON namelist parameters
# input: namelist_filename
# ------------------------
# For a complete list see Namelist_overview and Namelist_overview.pdf
#  
create_namelist()
{
namelist_filename=$1
cat > $namelist_filename << EOF
&testbed_nml
  testbed_model       = 4  ! test_halo_communication 
  testbed_iterations  = 100
  calculate_iterations  = 0
/
&parallel_nml
 iorder_sendrecv = 1
 nproma          = 16
 use_icon_comm   = .true.
 ! icon_comm_method = ${icon_comm_method} 
 ! max_send_recv_buffer_size = ${max_send_recv_buffer_size}
 ! max_mpi_message_size = ${max_mpi_message_size}
 p_test_run     = .false.
 l_test_openmp  = .false.
 l_log_checks   = .false.
 l_fast_sum     = .true.
 ! division_method=1
 ! division_file_name="$division_file_name"
 ! parallel_radiation_mode=$parallel_radiation_mode
 use_dycore_barrier = .false.
 ! test_parallel_radiation = .true.
 ! icon_comm_debug = .true.
/
&grid_nml
 dynamics_grid_filename = "${atmo_dyn_grids}",
/
&gridref_nml
/
&run_nml
 num_lev     = 40,        ! number of full levels of vertical grid
 ntracer     = 0          ! number of tracers
 nsteps      = 40         ! [day] length of run
 dtime       = 300        ! [s] timestep
 ldynamics   = .TRUE.       ! dynamics
 ltransport  = .FALSE.      ! transport 
 iforcing    = 0            ! no forcing
 ltestcase   = .TRUE.       ! run testcase
 ltimer = .true.
 timers_level = 100
 activate_sync_timers = .true.
 profiling_output = 2
/
&testcase_nml
 ctest_name  = 'JWw'        ! test case identifier
/
&dynamics_nml
 iequations  = 3     ! non-hydrostatic atmosphere 
/
&diffusion_nml
/
&transport_nml
/
EOF
}
#-----------------------------------------------------------------------------

#-----------------------------------------------------------------------------
create_namelist $testbed_namelist
run_atmo="true"
#-----------------------------------------------------------------------------
#-----------------------------------------------------------------------------
null_namelist="NAMELIST_null_${EXPNAME}"
cat > ${null_namelist} << EOF
&testbed_nml
  testbed_model = 0
/
EOF
#-----------------------------------------------------------------------------
dec_size=${dec_size:=$mpi_total_procs}
end_atmo_proc=`expr $dec_size - 1`
end_null_proc=`expr $mpi_total_procs - 1`
namelist_list=( "$atmo_namelist"  "$null_namelist" )
modelname_list=(   "atmo"          "null"          )
modeltype_list=(      1               99           )
minrank_list=(        0            $dec_size       )
maxrank_list=(  $end_atmo_proc    $end_null_proc   )
incrank_list=(        1                1           )
#-----------------------------------------------------------------------------

