#!/bin/bash
#=============================================================================
#-----------------------------------------------------------------------------
# the namelist filename
ocean_namelist=NAMELIST_${EXPNAME}
#-----------------------------------------------------------------------------
# global timing
start_date="2001-01-01T00:00:00Z"
  end_date="2002-01-01T00:00:00Z"
#-----------------------------------------------------------------------------
# model timing
(( years_checkpoint  = 50 ))    # write restart file interval [days]
(( years_restart = 50 ))    # stop model for restart [days]
(( days_data     = 30 ))    # ocean model output interval hours [hours] - for test runs
#
#-----------------------------------------------------------------------------
# calculate model timesteps using $days_data
output_interval="P${days_data}D"                   # ocean model output interval in days
(( dt_data        = days_data   * day ))      # used for output_bounds and buildbot
(( dt_checkpoint  = years_checkpoint  * year ))
(( dt_restart     = years_restart * year ))
steps_per_file=610   # output intervals per file interval
#-----------------------------------------------------------------------------
# global resolution
iforc=12
forcing_timescale=365  # length of OMIP/NCEP dataset: 1 = annual; 12 = monthly data; 365/else = daily data
use_file_initialConditions=".true."
external_interpolation_type="mpiom"
use_gridfile_for_grabbing_externale_data='true'
init_relax=1
init_rel_suff='20m.nc'  # 20m thickness
init_oce_suff='L20.nc'
init_rel_suff='surf.nc'
R=2   # nroot
B=4   # number of bisections applied
grid_ext="etopo40_planet_newgeom_noinland"
ocean_grids="iconR${R}B0${B}-ocean_${grid_ext}.nc"
#grids_folder="/scratch/mpi/CC/mh0287/users/m300056/icon/boundary_files/Ocean_160km_noinland_conservative"
#-----------------------------------------------------------------------------
#-----------------------------------------------------------------------------
#
# write namelist parameters
# -------------------------
cat > ${ocean_namelist} << EOF
!
&parallel_nml
 nproma         = $nproma
 p_test_run     = .true.
 l_fast_sum     = .false.
/
&grid_nml
 dynamics_grid_filename = "${ocean_grids}",
 use_dummy_cell_closure = .true.
 use_duplicated_connectivity = .false.
/
&dynamics_nml
 iequations  = -1       ! -1: hydrost. ocean model
/
&run_nml
 dtime       = 3600               ! model timestep in seconds
 output      = 'nml'              ! output mechanism via namelist
 activate_sync_timers = .TRUE.
 profiling_output     = 3
 msg_timestamp        = .FALSE.
 timers_level         = 10
 debug_check_level    = 1
/
&output_nml
  filetype         =  4                       ! output format: 2=GRIB2, 4=NETCDFv2
  output_filename  = "${EXPNAME}"
  filename_format  = "<output_filename>_<datetime2>"
  output_start     = "${start_date}"                  ! start in ISO-format
  output_end       = "${end_date}"                    ! end in ISO-format
  output_interval  = "${output_interval}"
  steps_per_file   = ${steps_per_file}                ! error with ""
  mode             =  2                       ! 1: forecast mode (relative t-axis), 2: climate mode (absolute t-axis)
  include_last     = .false.
  output_grid      = .TRUE.
  filename_format  = "<output_filename>_<datetime2>"
  ml_varlist       =  'group:oce_essentials','group:ice_default', 'topBoundCond_windStress_u'
/
&dbg_index_nml
  idbg_mxmn=1                     ! initialize MIN/MAX  debug output
  idbg_val =0                     ! initialize one cell debug output
  idbg_slev=1                     ! initialize start level for debug output
  idbg_elev=5                     ! initialize end level for debug output
  dbg_lat_in=   30.0              ! latitude location of one cell debug output
  dbg_lon_in=  -30.0              ! longitude location of one cell debug output
  str_mod_tst='all'               ! define modules to print out in debug mode
/
&ocean_dynamics_nml
! 20 unevenly spaced levels used by MPIOM/GR60, limited to 700m at bottom
  n_zlev             =   20      ! number of vertical levels and (dzlev_m) thicknesses
  dzlev_m(1:20)      =   20.0,   20.0,   20.0,   30.0,   40.0,   50.0,   70.0,   90.0,  120.0,  150.0,
                        180.0,  210.0,  250.0,  300.0,  400.0,  500.0,  600.0,  700.0,  700.0,  700.0
! 40 unevenly spaced levels used by MPIOM/GR30
! n_zlev             =   40
! dzlev_m(1:40)      =   12.0,   10.0,   10.0,   10.0,   10.0,   10.0,   13.0,   15.0,   20.0,   25.0,
!                        30.0,   35.0,   40.0,   45.0,   50.0,   55.0,   60.0,   70.0,   80.0,   90.0,
!                       100.0,  110.0,  120.0,  130.0,  140.0,  150.0,  170.0,  180.0,  190.0,  200.0,
!                       220.0,  250.0,  270.0,  300.0,  350.0,  400.0,  450.0,  500.0,  500.0,  600.0
  l_edge_based    = .false.       ! edge- or cell-based mimetic discretization
! l_partial_cells = .FALSE.      ! partial bottom cells=true: local varying bottom depth
  select_solver      = 3              !  1=gmres_oce_old; 2=ocean_restart_gmres, 3=mixed precisison restart
  use_absolute_solver_tolerance = .true.
  solver_tolerance   = 1.0E-13           !
  solver_max_iter_per_restart   = 26     !
  solver_tolerance_sp   = 1.0E-13        !
  solver_max_iter_per_restart_sp   = 26  !
  solver_max_restart_iterations = 100     !  outer (restart solver)
  fast_performance_level        = 200      !  performance level 12: for cell-based; 5: default
  use_continuity_correction=.true.        !  height adjustment according to vertical velocity in dynamics
  cfl_check = .false.
  cfl_write = .false.
  veloc_diffusion_form  = 2
  veloc_diffusion_order = 2
/
&ocean_tracer_transport_nml
! no_tracer             = 2      ! tracer-transport: 0=no transport, 1=temperature, 2=temp. and salinity
! FLUX_CALCULATION_HORZ = 5      ! 1=upwind, 2=central, 3=Lax-Friedrichs, 4=Miura, 5=FCT with Zalesak limiter (default)
! FLUX_CALCULATION_VERT = 7      ! 6=adpo; 7=upwind biased ppm (default); 8=FCT with zalesak limiter
  ! define low and high order methods to be used in horizontal flux corrected transport methods (flux_calculation_horz=4,5)
  fct_low_order_flux    = 1      ! horizontal low  order method: 1=upwind (def), no other implemented
  fct_high_order_flux   = 2      ! horizontal high order method: 1=upwind, 2=central (def), 3=lax_friedrichs, 4=miura_order1
  threshold_min_T       = -4.0   ! to avoid abort
/
&ocean_diffusion_nml
  HorizontalViscosityBackground_Biharmonic = 1.E+15   ! [m2/s] constant horizontal viscosity coefficient for velocity
  HorizontalViscosity_type       = 1        ! 3: calculate varying horizontal viscosity coefficient according to Munk criterion
  k_veloc_v                  = 1.5E-5   ! [m/s]  vertical background viscosity coefficient for velocity
  MAX_VERT_DIFF_VELOC        = 1.1E-3   ! 1.2E-3   ! max vertical velocity viscosity for convection used in case of instability
  k_pot_temp_h               =  600 ! 800.0   ! [m2/s] constant horizontal diffusion coefficient for temperature
  k_pot_temp_v               =  1.5E-5   ! [m/s]  vertical background diffusion coefficient for temperature
  k_sal_h                    =  600 ! 800.0   ! [m2/s] constant horizontal diffusion coefficient for salinity
  k_sal_v                    =  1.5E-5 ! [m/s]  vertical background diffusion coefficient for salinity
  MAX_VERT_DIFF_TRAC        = 0.025      ! max vertical tracer diffusion for convection used in case of instability
  convection_InstabilityThreshold = -5.0E-5    ! used in update_ho_params
  RichardsonDiffusion_threshold   = 0.0     ! used in update_ho_params
/
&ocean_physics_nml
  i_sea_ice            = 1        ! 0 = no sea ice; 1 = sea ice model on
  richardson_tracer    = 1.0E-3 ! 1.0E-3    ! factor for vertical diffusion coefficient in PP scheme
  richardson_veloc     = 1.0E-3 ! 1.0E-3    ! factor for vertical viscosity coefficient in PP scheme
  bottom_drag_coeff    = 1.0E-3 !  1.0E-3
  physics_parameters_type = 1   ! physics_parameters_ICON_PPoptimized_type
/
&sea_ice_nml
  i_ice_therm   = 1              !  0: not allowed, 1=zero-layer, 2=Winton
  i_ice_dyn     = 0              !  1/0=switch on/off AWI ice dynamics
/
&ocean_forcing_nml
  iforc_oce                   = 12       ! ocean forcing
  forcing_windstress_u_type   = 1
  forcing_windstress_v_type   = 1
  forcing_fluxes_type         = 1
  forcing_timescale   = 365   ! length of ocean forcing data set, see above
  init_oce_relax              = 1  ! read ocean surface relaxation file, see above
  type_surfRelax_Temp         = 0        ! 0: no relaxation used
                                         ! 1: relaxation switched on for reading (init_oce_relax=1) or some testcases only
  para_surfRelax_Temp         = 1.0      ! strength of 2-dim relaxation for temperature (months)
                                         ! this value is divided by number of seconds per month (=30*24*3600)
  type_surfRelax_Salt         = 1        ! 2-dim relaxation of salinity - see temperature relaxation for type values
  para_surfRelax_Salt         = 3.0      ! strength of 2-dim relaxation for salinity (months)
  forcing_enable_freshwater   = .TRUE.   ! apply freshwater forcing boundary condition (OMIP only)
  forcing_set_runoff_to_zero  = .TRUE.   ! set runoff to zero for comparison to MPIOM
  seaice_limit                = 0.4      ! maximum of 8m (0.4*dz) for both, ice and snow
/
&ocean_initialConditions_nml
  use_file_initialConditions = $use_file_initialConditions    ! read ocean initialization file, see above
  ! itestcase_oce      =   50      ! 50=zonally homogen temperature for APE SST (Williamson)
/
&ocean_diagnostics_nml
   diagnostics_level            = 1
   gibraltar(1:10)              = 1367,1369
   denmark_strait(1:10)         = 1411,1443
   drake_passage(1:10)          = 7167,7201,7203,7288,7290,7505
   indonesian_throughflow(1:20) = 2114,2118,2117,2120,4242,4245,4343,4349,4340,4350,4250,4615,4611,4616
   scotland_iceland(1:10)       = 1240,1439,1238,1249,1248
   mozambique(1:10)             = 1704,1688,1707,4200
   framStrait(1:10)             = 116,118,1462
   beringStrait(1:10)           = 693,721
   barentsOpening(1:10)         = 68,65,67,42
   agulhas(1:10)                = 8024,8022
   agulhas_long(1:10)           = 8024,8022,6036
   agulhas_longer(1:10)         = 8024,8022,6036,6025
/
&io_nml
  dt_checkpoint = ${dt_checkpoint}
  lkeep_in_sync = .true.          ! sync after each timestep
/
EOF
#-----------------------------------------------------------------------------
# add standard atmo_non-hydrostatic_files
. ${thisdir}/add_required_ocean_files
#-----------------------------------------------------------------------------
