#!/bin/bash
#=============================================================================
#-----------------------------------------------------------------------------
# the namelist filename
ocean_namelist=NAMELIST_${EXPNAME}
#-----------------------------------------------------------------------------
start_date="2001-01-01T00:00:00Z"
  end_date="2001-01-02T00:00:00Z"
checkpoint_interval="PT12H"
restart_interval="P25Y"
output_interval="PT12H"
file_interval=${output_interval}
# restart=".true."
#-----------------------------------------------------------------------------
#-----------------------------------------------------------------------------
# global resolution
iforc=12
forcing_timescale=365  # length of OMIP/NCEP dataset: 1 = annual; 12 = monthly data; 365/else = daily data
init_relax=1
ocean_vertical_levels=40
ocean_grids="OceanOnly_Icos_0158km_etopo40.nc"
#icon_data_rootFolder=/pool/data/ICON
#ocean_location="fluent"
#grids_folder="/scratch/mpi/CC/mh0287/users/m300056/icon/boundary_files/OceanOnly_160km_20levels_conservative"
#-----------------------------------------------------------------------------
#
# write namelist parameters
# -------------------------
cat > ${ocean_namelist} << EOF
!
&parallel_nml
 nproma         = $nproma
 p_test_run     = .false.
 l_fast_sum     = .false.
 num_prefetch_proc = 0
 pio_type       = 0
 num_io_procs   = 0
/
&grid_nml
 dynamics_grid_filename = "${ocean_grids}",
 use_dummy_cell_closure = .true.
 use_duplicated_connectivity = .false.
/
&dynamics_nml
 iequations  = -1       ! -1: hydrost. ocean model
/
&run_nml
 dtime       = 300               ! model timestep in seconds
 output      = 'nml'              ! output mechanism via namelist
 activate_sync_timers = .TRUE.
 profiling_output = 3
 msg_timestamp        = .FALSE.
 debug_check_level    = 10
 restart_filename = "${EXPNAME}_restart_oce_<rsttime>.nc"
/
&output_nml
  output_start     = "${start_date}"
  output_end       = "${end_date}"
  output_interval  = "${output_interval}"
  file_interval    = "${file_interval}"
  output_grid      = .TRUE.
  output_filename  = "${EXPNAME}_oceDefault"
  filename_format  = "<output_filename>_<datetime2>"
  mode             =  2                               ! 1: forecast mode (relative t-axis), 2: climate mode (absolute t-axis)
  include_last     = .false.
  output_grid      = .TRUE.
  operation        = "mean"
  filename_format  = "<output_filename>_<datetime2>"
  ml_varlist       =  'group:oce_default','-mld','group:ice_default'
/
&dbg_index_nml
  idbg_mxmn=1                     ! initialize MIN/MAX  debug output
  idbg_val =0                     ! initialize one cell debug output
  idbg_slev=1                     ! initialize start level for debug output
  idbg_elev=5                     ! initialize end level for debug output
  dbg_lat_in=   30.0              ! latitude location of one cell debug output
  dbg_lon_in=  -30.0              ! longitude location of one cell debug output
  str_mod_tst='all'               ! define modules to print out in debug mode
/
&ocean_dynamics_nml
! 20 unevenly spaced levels used by MPIOM/GR60, limited to 700m at bottom
!  n_zlev             =   20      ! number of vertical levels and (dzlev_m) thicknesses
!  dzlev_m(1:20)      =   20.0,   20.0,   20.0,   30.0,   40.0,   50.0,   70.0,   90.0,  120.0,  150.0,
!                        180.0,  210.0,  250.0,  300.0,  400.0,  500.0,  600.0,  700.0,  700.0,  700.0
! 40 unevenly spaced levels used by MPIOM/GR30
 n_zlev             =  $ocean_vertical_levels
 dzlev_m(1:40)      =  12.0,   10.0,   10.0,   10.0,   10.0,   10.0,   13.0,   15.0,   20.0,   25.0,
                       30.0,   35.0,   40.0,   45.0,   50.0,   55.0,   60.0,   70.0,   80.0,   90.0,
                       100.0,  110.0,  120.0,  130.0,  140.0,  150.0,  170.0,  180.0,  190.0,  200.0,
                       220.0,  250.0,  270.0,  300.0,  350.0,  400.0,  450.0,  500.0,  500.0,  600.0
  l_edge_based                    = .FALSE.   ! edge- or cell-based mimetic discretization
  l_partial_cells                 = .FALSE.   ! partial bottom cells=true: local varying bottom depth

  select_solver                   = 4       ! 1=gmres_oce_old; 2=ocean_restart_gmres, 3=mixed precisison restart 
                                            ! 4=CG (default) 5=CGJ 6=BiCG 7=GMRES restart (legacy) 8=MINRES
  use_absolute_solver_tolerance   = .true.
  solver_tolerance                = 1.0E-10 ! this may further be reduced

  select_lhs                      = 2       ! 1=operator based (default) 2=matrix based
  l_lhs_direct                    = .true. ! .true.= use lhs implementation directly  .false.= matrix scanner (default) 
  solver_FirstGuess               = 2       ! 0=start from zeros 1=last timestep smoothed 2=last timestep (default) 

  fast_performance_level          = 200       ! performance level 12: for cell-based; 5: default
  use_continuity_correction       = .TRUE.    ! height adjustment according to vertical velocity in dynamics
  cfl_check                       = .FALSE.
  cfl_write                       = .FALSE.
/

&ocean_tracer_transport_nml
  tracer_HorizontalAdvection_type = 1 ! cell based=edge_based
  FLUX_CALCULATION_HORZ =  5 ! 5      ! 1=upwind, 2=central, 3=Lax-Friedrichs, 4=Miura, 5=FCT with Zalesak limiter (default)
  FLUX_CALCULATION_VERT =  7 ! 7      ! 6=adpo; 7=upwind biased ppm (default); 8=FCT with zalesak limiter
  ! define low and high order methods to be used in horizontal flux corrected transport methods (flux_calculation_horz=4,5)
  fct_low_order_flux    = 1      ! horizontal low  order method: 1=upwind (def), no other implemented
  fct_high_order_flux   = 5      ! horizontal high order method: 1=upwind, 2=central, 3=lax_friedrichs, 4=miura_order1
  fct_limiter_horz      = 100    ! zalesak
  threshold_min_T       = -4.0   ! to avoid abort
/
&ocean_horizontal_diffusion_nml
  laplacian_form = 1                   ! 1=curlcurl-graddiv
  VelocityDiffusion_order = 2          ! 21=biharmonic+laplacian (for the laplacian leith)

  BiharmonicViscosity_scaling     =  4 ! scale ^3 with resolution
  BiharmonicViscosity_reference   =  2.6E-2  ! 4.0E-2 
  BiharmonicViscosity_background  =  0.0     
  BiharmonicVort_weight           = 1.0
  BiharmonicDiv_weight            = 1.0

  HarmonicViscosity_scaling     =  1
  HarmonicViscosity_reference   =  0  !  [m2/s] constant horizontal viscosity coefficient for velocity
  HarmonicViscosity_background  =  0  !  [m2/s] constant horizontal viscosity coefficient for velocity

  LeithClosure_order = 0   ! 1 ! harmonic
  LeithClosure_form  = 5 ! based on grad of w
  LeithHarmonicViscosity_scaling = 3 ! scale ^2
  LeithHarmonicViscosity_reference =  1.0 

  LeithViscosity_SmoothIterations = 1 ! we need to smooth the Leith coefficients once
  LeithViscosity_SpatialSmoothFactor = 0.75 ! half smoothing comes for neigbors  
 
  HorizontalViscosity_SmoothIterations = 3 ! this is for the biharmonic smoothing
  HorizontalViscosity_SpatialSmoothFactor = 0.5

  TracerHorizontalDiffusion_scaling          = 1
  Temperature_HorizontalDiffusion_Background = 200.0
  Temperature_HorizontalDiffusion_Reference  = 0.0
  Salinity_HorizontalDiffusion_Background    = 200.0
  Salinity_HorizontalDiffusion_Reference     = 0.0
/
&ocean_vertical_diffusion_nml
  vert_mix_type                            = 2 ! 1=PP, 2=TKE, 3=KPP
  PPscheme_type                            = 0
/                                           
&ocean_GentMcWilliamsRedi_nml
  GMRedi_configuration           =   0       ! 0=cartesian diffusion 1=GM-Redi: bolus advection + isopycnal diffusion
  GMREDI_COMBINED_DIAGNOSTIC     = .false.
/                                           
&sea_ice_nml
  i_ice_therm                     =   1       ! 0: not allowed, 1=zero-layer, 2=Winton
  i_ice_dyn                       =   1       ! 1/0=switch on/off AWI ice dynamics
/
&ocean_forcing_nml
  iforc_oce                       =  $iforc   ! ocean forcing
  forcing_windstress_u_type       =   1
  forcing_windstress_v_type       =   1
  bulk_wind_stress_type           =   2 ! 0: from file, 1: ocean at rest, 2: with ocean currents
  forcing_fluxes_type             =   1
  forcing_timescale               = $forcing_timescale  ! length of ocean forcing data set, see above
  init_oce_relax                  =   1       ! read ocean surface relaxation file, see above
  type_surfRelax_Temp             =   0       ! 0: no relaxation used
                                              ! 1: relaxation switched on for reading (init_oce_relax=1) or some testcases only
  para_surfRelax_Temp             =   1.0     ! strength of 2-dim relaxation for temperature (months)
                                              ! this value is divided by number of seconds per month (=30*24*3600)
  type_surfRelax_Salt             =   1       ! 2-dim relaxation of salinity - see temperature relaxation for type values
  para_surfRelax_Salt             =   3.0     ! strength of 2-dim relaxation for salinity (months)
  forcing_enable_freshwater       = .TRUE.    ! apply freshwater forcing boundary condition (OMIP only)
  forcing_set_runoff_to_zero      = .FALSE.   ! set runoff to zero for comparison to MPIOM
  seaice_limit                    =   0.8     ! maximum of 8m (0.4*dz) for both, ice and snow
  limit_elevation                 = .TRUE.
  !atm_pressure_included_in_ocedyn = .TRUE.   ! use atm. pressure in the ocean dynamics
  !atm_pressure_included_in_icedyn = .TRUE.   ! use atm. pressure in the ice dynamics
  use_tides                       = .false.
  use_tides_SAL                   = .false.
  !lswr_jerlov                     = .TRUE.    ! use jerlov water types for sw absorption
  !jerlov_atten                    = 0.08      ! jerlov water type IB
  !jerlov_bluefrac                 = 0.36      ! jerlov water type IB
/                                    
&ocean_initialConditions_nml
  initial_salinity_type           = 1
  initial_temperature_type        = 1  
/
&ocean_diagnostics_nml
   diagnostics_level            = 1
   gibraltar(1:10)              = 1367,1369
   denmark_strait(1:10)         = 1411,1443
   drake_passage(1:10)          = 7167,7201,7203,7288,7290,7505
   indonesian_throughflow(1:20) = 2114,2118,2117,2120,4242,4245,4343,4349,4340,4350,4250,4615,4611,4616
   scotland_iceland(1:10)       = 1240,1439,1238,1249,1248
   mozambique(1:10)             = 1704,1688,1707,4200
   framStrait(1:10)             = 116,118,1462
   beringStrait(1:10)           = 693,721
   barentsOpening(1:10)         = 68,65,67,42
   agulhas(1:10)                = 8024,8022
   agulhas_long(1:10)           = 8024,8022,6036
   agulhas_longer(1:10)         = 8024,8022,6036,6025
/
EOF
#-----------------------------------------------------------------------------



#-----------------------------------------------------------------------------
# add standard atmo_non-hydrostatic_files
. ${thisdir}/add_required_ocean_files

#-----------------------------------------------------------------------------
