#!/bin/bash
#=============================================================================
#-----------------------------------------------------------------------------
# the namelist filename
ocean_namelist=NAMELIST_${EXPNAME}
#-----------------------------------------------------------------------------
# global timing
start_date="2001-01-01T00:00:00Z"
  end_date="2001-01-01T02:00:00Z"
# restart=".true."
#-----------------------------------------------------------------------------
# model timing
(( years_checkpoint  = 50 ))    # write restart file interval [days]
(( years_restart = 50 ))    # stop model for restart [days]
#-----------------------------------------------------------------------------
# calculate model timesteps using $days_data
output_interval="PT30M"
(( dt_checkpoint  = years_checkpoint  * year ))
(( dt_restart     = years_restart * year ))
steps_per_file=6480   # output intervals per file interval (5days)
autoPostProcessing=false
grids_folder="${icon_data_poolFolder}/oes/grids/AquaPlanets"
ocean_grids="AquaPlanet_IcosDual_0158km_springOpt.nc"
modelTimestep="PT10M"
#-----------------------------------------------------------------------------
#
# write namelist parameters
# -------------------------
cat > ${ocean_namelist} << EOF
!
&parallel_nml
 nproma         = 8
 p_test_run     = .false.
 l_fast_sum     = .true.
/
&grid_nml
 dynamics_grid_filename = "${ocean_grids}",
 use_dummy_cell_closure = .true.
 use_duplicated_connectivity = .false.
/
&dynamics_nml
 iequations  = -1       ! -1: hydrost. ocean model
/
&run_nml
 modelTimestep = '${modelTimestep}'
 output      = 'nml'              ! output mechanism via namelist
 msg_timestamp        = .FALSE.
 profiling_output     = 2
 timers_level         = 10
 debug_check_level    = 1
/
&output_nml
  filetype         =  4                       ! output format: 2=GRIB2, 4=NETCDFv2
  output_filename  = "${EXPNAME}"
  filename_format  = "<output_filename>_<datetime2>"
  output_start     = "${start_date}"                  ! start in ISO-format
  output_end       = "${end_date}"                    ! end in ISO-format
  output_interval  = "${output_interval}"
  steps_per_file   = ${steps_per_file}                ! error with ""
  mode             =  2                       ! 1: forecast mode (relative t-axis), 2: climate mode (absolute t-axis)
  include_last     = .false.
  output_grid      = .TRUE.
  operation        = "mean"
  filename_format  = "<output_filename>_<datetime2>"
  ml_varlist       =  'zos', 'u', 'v', 'to', 'vort'
/
&dbg_index_nml
  idbg_mxmn=3                     ! initialize MIN/MAX  debug output
  idbg_val =0                     ! initialize one cell debug output
  idbg_slev=1                     ! initialize start level for debug output
  idbg_elev=1                     ! initialize end level for debug output
  dbg_lat_in=   30.0              ! latitude location of one cell debug output
  dbg_lon_in=  -30.0              ! longitude location of one cell debug output
  str_mod_tst='all'               ! define modules to print out in debug mode
/
&ocean_dynamics_nml
 n_zlev             =   1
 dzlev_m(1:1)      =   1.0
  l_edge_based    = .false.       ! edge- or cell-based mimetic discretization

  select_solver                   = 4       ! 1=gmres_oce_old; 2=ocean_restart_gmres, 3=mixed precisison restart 
                                            ! 4=CG (default) 5=CGJ 6=BiCG 7=GMRES restart (legacy) 8=MINRES
  use_absolute_solver_tolerance   = .true.
  solver_tolerance                = 1.0E-13 ! this may further be reduced

  select_lhs                      = 1       ! 1=operator based (default) 2=matrix based
  l_lhs_direct                    = .false. ! .true.= use lhs implementation directly  .false.= matrix scanner (default) 
  solver_FirstGuess               = 2       ! 0=start from zeros 1=last timestep smoothed 2=last timestep (default) 
  l_lhs_direct = .true.

  fast_performance_level        = 200      !  performance level 12: for cell-based; 5: default
  use_continuity_correction=.true.        !  height adjustment according to vertical velocity in dynamics
  cfl_check = .false.
  cfl_write = .false.
  iswm_oce= 1
  MASS_MATRIX_INVERSION_TYPE = 0 !0=no mass matrix inversio, =1 for advective term  
/
&ocean_tracer_transport_nml
  no_tracer             = 1      ! tracer-transport: 0=no transport, 1=temperature, 2=temp. and salinity
/
&ocean_horizontal_diffusion_nml
  TracerHorizontalDiffusion_scaling          = 1
  Temperature_HorizontalDiffusion_Background = 0.0
  Temperature_HorizontalDiffusion_Reference  = 0.0
/
&ocean_vertical_diffusion_nml
  Temperature_VerticalDiffusion_background =   0.0  ! [m2/s]  vertical background diffusion coefficient for temperature
/
&ocean_physics_nml
  i_sea_ice            = 0        ! 0 = no sea ice; 1 = sea ice model on
/
&ocean_GentMcWilliamsRedi_nml
  GMRedi_configuration           =   0       ! 0=cartesian diffusion 1=GM-Redi: bolus advection + isopycnal diffusion
/
&sea_ice_nml
  i_ice_therm   = 1              !  0: not allowed, 1=zero-layer, 2=Winton
  i_ice_dyn     = 0              !  1/0=switch on/off AWI ice dynamics
/
&ocean_forcing_nml
  iforc_oce                   = 10       ! ocean forcing
/
&ocean_initialConditions_nml
  initial_velocity_type  = 202     !Williamson test2:202, Williamson test 5:203  
  sea_surface_height_type= 204     !Williamson test2:204, Williamson test 5:205 
  topography_type=200              !For Williamson test5=201 otherwise =200
  initial_temperature_type=211
/
&ocean_diagnostics_nml
  diagnostics_level            = 0
  diagnose_for_horizontalVelocity = .false.
/
&io_nml
  dt_checkpoint = ${dt_checkpoint}
  lkeep_in_sync = .true.          ! sync after each timestep
/
EOF
#-----------------------------------------------------------------------------



#-----------------------------------------------------------------------------
# add standard atmo_non-hydrostatic_files
. ${thisdir}/add_required_ocean_files
#-----------------------------------------------------------------------------
