#--------------------------------------------------------------------------------------------------
#
# AMIP experiment
#
author_list="Marco Giorgetta, MPIM"
#
#--------------------------------------------------------------------------------------------------
#
# This file describes an AMIP experiment based on the non-hydrostatic atmosphere and the
# ECHAM physics. The experiment is intialized from IFS analysis files and uses transient
# boundary conditions for:
# - SST and sea ice
# - spectral solar irradiation
# - well mixed greenhouse gases CO2, CH4, N2O, CFCs
# - O3 concentration
# - tropospheric aerosol optical properties
# - stratospheric volcanic aerosol optical properties
#
# _bb_table_Description_  AMIP experiment
# _bb_table_Model_        non-hydrostatic atmosphere with ECHAM physics
#
#--------------------------------------------------------------------------------------------------

# (1) Variables provided by the scripting mechanism

# EXPNAME                       = name of exp. in 'exp.<name>'
# basedir                       = base directory, where src/, run/ etc exist
# icon_data_poolFolder          = base directory, where grids/, input/ and setup/ exist
# nproma                        = blocking length for array dimensioning and inner loop lengths

#--------------------------------------------------------------------------------------------------

# (2) Set variables needed by the scripting mechanism

# horizontal grid(s)
grid_name=r2b4_amip
grids_folder=${icon_data_poolFolder}/grids/private/${grid_name}/r0002
atmo_dyn_grids=${grid_name}.nc

# start and end date+time
start_date="1979-01-01T00:00:00Z"
  end_date="1979-01-01T00:16:00Z"

# restart intervals
checkpoint_interval="PT8M"
restart_interval="PT16M"

# output intervals
output_interval="PT4M"
file_interval="PT4M"

# namelist files
atmo_namelist=NAMELIST_${EXPNAME}_atm
lnd_namelist=NAMELIST_${EXPNAME}_lnd

# JSBACH settings
run_jsbach=yes
jsbach_with_hd=no
jsbach_usecase=jsbach_lite
#
[[ $jsbach_with_hd == yes ]] && jsbach_usecase=${jsbach_usecase}_with_hd
ljsbach=$([ "${run_jsbach:=no}" == yes ] && echo .TRUE. || echo .FALSE. )
#--------------------------------------------------------------------------------------------------

# (3) Define the model configuration

# atmospheric dynamics and physics
# --------------------------------
cat > ${atmo_namelist} << EOF
!
&parallel_nml
 nproma           = ${nproma}
/
&grid_nml
 dynamics_grid_filename = "${atmo_dyn_grids}",
/
&run_nml
 num_lev          = 47          ! number of full levels
 modelTimeStep    = "PT4M"
 ltestcase        = .FALSE.     ! run testcase
 ldynamics        = .TRUE.      ! dynamics
 ltransport       = .TRUE.      ! transport
 ntracer          = 3           ! number of tracers; 3: hus, clw, cli; 4: hus, clw, cli, o3
 iforcing         = 2           ! 0: none, 1: HS, 2: ECHAM, 3: NWP
 output           = 'nml'
 msg_level        = 15          ! level of details report during integration 
 restart_filename = "${EXPNAME}_restart_atm_<rsttime>.nc"
 activate_sync_timers = .TRUE.
/
&extpar_nml
 itopo            = 1           ! 1: read topography from the grid file
 l_emiss          = .FALSE.
/
&initicon_nml
 init_mode        = 2           ! 2: initialize from IFS analysis
/
&nonhydrostatic_nml
 ndyn_substeps    = 2           ! dtime/dt_dyn
 damp_height      = 50000.      ! [m]
 rayleigh_coeff   = 0.10
 vwind_offctr     = 0.2
 divdamp_fac      = 0.004
/
&interpol_nml
 rbf_scale_mode_ll = 1
/
&sleve_nml
 min_lay_thckn    = 40.         ! [m]
 top_height       = 83000.      ! [m]
 stretch_fac      = 0.9
 decay_scale_1    = 4000.       ! [m]
 decay_scale_2    = 2500.       ! [m]
 decay_exp        = 1.2
 flat_height      = 16000.      ! [m]
/
&diffusion_nml
/
&transport_nml
!                   hus,clw,cli, o3
 ivadv_tracer     =   3,  3,  3,  3
 itype_hlimit     =   3,  4,  4,  3
 ihadv_tracer     =  52,  2,  2, 52
/
&mpi_phy_nml
!
! domain 1
! --------
!
! atmospheric phyiscs (""=never)
 mpi_phy_config(1)%dt_rad = "PT8M"
 mpi_phy_config(1)%dt_vdf = "PT4M"
 mpi_phy_config(1)%dt_cnv = "PT4M"
 mpi_phy_config(1)%dt_cld = "PT4M"
 mpi_phy_config(1)%dt_gwd = "PT4M"
 mpi_phy_config(1)%dt_sso = "PT4M"
!
! atmospheric chemistry (""=never)
 mpi_phy_config(1)%dt_mox = ""
 mpi_phy_config(1)%dt_car = ""
 mpi_phy_config(1)%dt_art = ""
!
! surface (.TRUE. or .FALSE.)
 mpi_phy_config(1)%ljsb  = ${ljsbach}
 mpi_phy_config(1)%lamip = .TRUE.
 mpi_phy_config(1)%lice  = .TRUE.
 mpi_phy_config(1)%lmlo  = .FALSE.
!
/
&mpi_sso_nml
/
&radiation_nml
 irad_h2o         = 1           ! 1: prognostic vapor, liquid and ice
 irad_co2         = 4           ! 4: from greenhouse gas scenario
 irad_ch4         = 4           ! 4: from greenhouse gas scenario
 irad_n2o         = 4           ! 4: from greenhouse gas scenario
 irad_o3          = 8           ! 1: prognostic ozone; 8: prescribed transient monthly mean ozone
 irad_o2          = 2           ! 2: horizontally and vertically constant
 irad_cfc11       = 4           ! 4: from greenhouse gas scenario
 irad_cfc12       = 4           ! 4: from greenhouse gas scenario
 irad_aero        = 18          ! 0: no aerosol
                                !13: only Kinne\'s tropospheric aerosols 
                                !14: only Stenchikov\'s volcanic aerosols
                                !15: Kinne aerosol optics for troposphere
                                !   +Stenchikov aerosol optics for stratosphere
                                !18: Kinne background aerosols of 1850 (natural
                                !    background + Stenchikov\'s volc. aerosols
                                !    + simple plumes (anthropogenic)
 ighg             = 1           ! 1: transient well mixed greenhouse gas concentrations
 isolrad          = 1           ! 1: transient solar irradiance (at 1 AE)
/
&psrad_nml
 rad_perm         = 1           ! Integer for perturbing random number seeds
/
&psrad_orbit_nml
/
&echam_conv_nml
/
&echam_cloud_nml
/
&gw_hines_nml
/
&sea_ice_nml
/
EOF

# land surface and soil
# ---------------------
cat > ${lnd_namelist} <<EOF
&jsb_model_nml
  usecase         = "${jsbach_usecase}"
/
&jsb_srf_nml
  bc_filename     = 'bc_land_phys.nc'
  bc_sso_filename = 'bc_land_sso.nc'
  ic_filename     = 'ic_land_soil.nc'
/
&jsb_soil_nml
  active          = .TRUE.
  nsoil_energy    = 5
  nsoil_water     = 5
  bc_filename     = 'bc_land_soil.nc'
  ic_filename     = 'ic_land_soil.nc'
/
&jsb_veg_nml
  active          = .TRUE.
  bc_filename     = 'bc_land_phys.nc'
  ic_filename     = 'ic_land_soil.nc'
/
EOF
if [[ ${jsbach_with_hd} = yes ]]; then
cat >> ${lnd_namelist} <<EOF
&jsb_hd_nml
  active          = .TRUE.
  routing_scheme  = 'full'
  bc_filename     = 'bc_land_hd.nc'
  diag_water_budget = .TRUE.
  debug_hd        = .FALSE.
/
EOF
fi

#--------------------------------------------------------------------------------------------------

# (4) Define the input

# model files
#
add_link_file ${basedir}/data/rrtmg_lw.nc                               ./
add_link_file ${basedir}/data/rrtmg_sw.nc                               ./
add_link_file ${basedir}/data/ECHAM6_CldOptProps.nc                     ./

# namelist files
#
add_required_file ${basedir}/run/${atmo_namelist}                       ./
add_required_file ${basedir}/run/${lnd_namelist}                        ./

# dictionary file for output variable names
#
dict_file="dict.${EXPNAME}"
cat dict.iconam.mpim  > ${dict_file}
add_required_file ${basedir}/run/${dict_file}                           ./

# initial conditions
#
INDATA=${icon_data_poolFolder}/input/r0004
#
# - atmosphere: ECMWF analysis, 1979-01-01T00:00:00Z
datadir=${icon_data_poolFolder}/setup/ifs_iconremap_amip
add_link_file $datadir/ifs_remap_${grid_name}_2012010100_setyear1979.nc ./ifs2icon_R2B04_DOM01.nc
#
# - land: source?, date+time?
datadir=$INDATA/${grid_name}/lnd
add_link_file ${datadir}/ic_land_soil_1976.nc                           ./ic_land_soil.nc

# boundary conditions
#
# range of years for yearly files
# assume start_date and end_date have the format yyyy-...
start_year=$(( ${start_date%%-*} - 1 ))
end_year=$(( ${end_date%%-*} + 1 ))
#
# - well mixed greenhouse gases
datadir=$INDATA/global/atm
add_link_file $datadir/bc_greenhouse_rcp45_1765-2500.nc                 ./bc_greenhouse_gases.nc
#
# - ozone
# -- for irad_o3=8
datadir=$INDATA/${grid_name}/atm/bc_ozone_cmip5
year=$start_year
while [[ $year -le $end_year ]]
do
  add_link_file $datadir/bc_ozone_cmip5_${year}.nc                      ./bc_ozone_${year}.nc
  (( year = year+1 ))
done
# -- for irad_o3=1 with Cariolle ozone chemistry
datadir=$INDATA/global/atm
add_link_file $datadir/bc_ozone_cariolle.nc                             ./cariolle_coeff.nc
#
# - tropospheric aerosol
datadir=$INDATA/${grid_name}/atm/bc_aeropt_kinne
year=$start_year
while [[ $year -le $end_year ]]
do
  add_link_file $datadir/bc_aeropt_kinne_lw_b16_coa.nc                  ./bc_aeropt_kinne_lw_b16_coa_${year}.nc
  add_link_file $datadir/bc_aeropt_kinne_sw_b14_coa.nc                  ./bc_aeropt_kinne_sw_b14_coa_${year}.nc
  if [[ $year -le 2000 ]]
  then
    add_link_file $datadir/bc_aeropt_kinne_sw_b14_fin_${year}.nc        ./bc_aeropt_kinne_sw_b14_fin_${year}.nc
  else
    add_link_file $datadir/bc_aeropt_kinne_sw_b14_fin_rcp45_${year}.nc  ./bc_aeropt_kinne_sw_b14_fin_${year}.nc
  fi
  (( year = year+1 ))
done
#
# - tropospheric anthropogenic aerosols, simple plumes
  add_link_file ${basedir}/data/MACv2.0-SP_v1.nc ./MACv2.0-SP_v1.nc
#   Kinne background aerosols are needed for the years 1849, 1850, 1851 
!   accessing all the same data of 1850:
datadir=$INDATA/${grid_name}/atm/bc_aeropt_kinne
year=1849
while [[ $year -le 1851 ]]
do
  add_link_file $datadir/bc_aeropt_kinne_lw_b16_coa.nc                  ./bc_aeropt_kinne_lw_b16_coa_${year}.nc
  add_link_file $datadir/bc_aeropt_kinne_sw_b14_coa.nc                  ./bc_aeropt_kinne_sw_b14_coa_${year}.nc
  add_link_file $datadir/bc_aeropt_kinne_sw_b14_fin_1850.nc             ./bc_aeropt_kinne_sw_b14_fin_${year}.nc
  (( year = year+1 ))
done
#
# - stratospheric aerosol
datadir=$INDATA/${grid_name}/atm/bc_aeropt_stenchikov
year=$start_year
while [[ $year -le $end_year ]]
do
  if [[ $year -le 1999 ]]
  then
    add_link_file $datadir/bc_aeropt_stenchikov_lw_b16_sw_b14_${year}.nc  ./bc_aeropt_stenchikov_lw_b16_sw_b14_${year}.nc
  else
    add_link_file $datadir/bc_aeropt_stenchikov_lw_b16_sw_b14_1999.nc     ./bc_aeropt_stenchikov_lw_b16_sw_b14_${year}.nc
  fi
  (( year = year+1 ))
done
#
# - sst and sic
datadir=$INDATA/${grid_name}/oce
add_link_file $datadir/bc_sic_pcmdi_1870-2010.nc                        ./bc_sic.nc
add_link_file $datadir/bc_sst_pcmdi_1870-2010.nc                        ./bc_sst.nc
#
# - ssi and tsi
datadir=$INDATA/global/sun
add_link_file $datadir/bc_solar_irradiance_14band_1849-2399.nc          ./bc_solar_irradiance_sw_b14.nc
#
# - land parameters
datadir=$INDATA/${grid_name}/lnd
add_link_file $datadir/bc_land_frac_1976.nc                             ./bc_land_frac.nc
add_link_file $datadir/bc_land_phys_1976.nc                             ./bc_land_phys.nc
add_link_file $datadir/bc_land_soil_1976.nc                             ./bc_land_soil.nc
add_link_file $datadir/bc_land_sso_1976.nc                              ./bc_land_sso.nc
if [[ ${jsbach_with_hd} = yes ]]; then
  add_link_file $datadir/bc_land_hd.nc                                    ./bc_land_hd.nc
fi

#--------------------------------------------------------------------------------------------------

# (5) Define the output

# Define grids for horizontal remapping of output fields
# ------------------------------------------------------
#
# The ICON RmBn grid has 3*m*2**n rows of triangles between the vertices at the N and S pole.
# The number of triangles in a row around this axis increases linearly from 5 to 5*(1+2*(i-1))
# at the base of the "polar" icosahedral triangles. In the "tropical" icosahedral triangles
# all rows have a  5*(2*(m*2**n)) triangles. The triangles are either northward or southward
# pointing. Thus the smallest periodic element in a tropical row is a rhombus formed by two
# adjacent triangles. A tropical row has 5*(m*n**2) rhombi.
#
# The R2B4 grid has a total of 20480 triangular cells in 96 rows.
# The tropical rows have 320 triangles or 160 rhombi.
#
# Therefore the following regular lon-lat grids are of interest for remapping:
#
# regular  grid: nlat=96, nlon=192, npts=18432, dlat=1.875 deg, dlon=1.875 deg
reg_lat_def_reg=-89.0625,1.875,89.0625
reg_lon_def_reg=0.,1.875,358.125
#
# rhombus  grid: nlat=96, nlon=160, npts=15360, dlat=1.875 deg, dlon=2.250 deg
reg_lat_def_rmb=$reg_lat_def_reg
reg_lon_def_rmb=0.,2.25,357.75
#
# triangle grid: nlat=96, nlon=320, npts=30720, dlat=1.875 deg, dlon=1.125 deg
reg_lat_def_tri=$reg_lat_def_reg
reg_lon_def_tri=0.,1.125,358.875

# Parameters for all output files
# -------------------------------
cat >> ${atmo_namelist} << EOF
&io_nml
 output_nml_dict  = "${dict_file}"
 netcdf_dict      = "${dict_file}"
 lnetcdf_flt64_output = .TRUE.
 itype_pres_msl   = 4
/
EOF

# Define output files
# -------------------
#
# output_<xyz>=yes : yes --> output files for <xyz>, any other value --> no files for <xyz>
#
# 3-dimensional files include 'ps' and 'pfull' to allow the vertical
# interpolation to pressure levels by cdo ap2pl.

output_atm_cgrid=yes
#
if [[ "$output_atm_cgrid" == "yes" ]]; then
  #
  cat >> ${atmo_namelist} << EOF
&output_nml
 output_filename  = "${EXPNAME}_atm_cgrid"
 filename_format  = "<output_filename>_<levtype_l>"
 remap            = 0
 output_grid      = .TRUE.
 output_start     = "${start_date}"       ! output_start = output_end
 output_end       = "${start_date}"       ! --> write once only irrespective of
 output_interval  = "${output_interval}"  !     the output interval and
 file_interval    = "${file_interval}"    !     the file interval
 ml_varlist       = 'clon', 'clat', 'areacella', 'zghalf', 'zg'
/
EOF
fi


output_atm_3d=yes
#
if [[ "$output_atm_3d" == "yes" ]]; then
  #
  cat >> ${atmo_namelist} << EOF
&output_nml
 output_filename  = "${EXPNAME}_atm_3d"
 filename_format  = "<output_filename>_<levtype_l>_<datetime2>"
 remap            = 0
 output_grid      = .TRUE.
 output_start     = "${start_date}"
 output_end       = "${end_date}"
 output_interval  = "${output_interval}"
 file_interval    = "${file_interval}"
 include_last     = .FALSE.
 ml_varlist       = 'ps'      , 'pfull'   , 'zg'      ,
                    'rho'     , 'ta'      ,
                    'ua'      , 'va'      , 'wap'     ,
                    'hus'     , 'clw'     , 'cli'     ,
                    'hur'     , 'cl'      ,
                    !'qo3'    ,
/
EOF
fi


output_atm_2d=yes
#
if [[ "$output_atm_2d" == "yes" ]]; then
  #
  cat >> ${atmo_namelist} << EOF
&output_nml
 output_filename  = "${EXPNAME}_atm_2d"
 filename_format  = "<output_filename>_<levtype_l>_<datetime2>"
 remap            = 0
 output_grid      = .TRUE.
 output_start     = "${start_date}"
 output_end       = "${end_date}"
 output_interval  = "${output_interval}"
 file_interval    = "${file_interval}"
 include_last     = .FALSE.
 ml_varlist       = 'orog'    ,
                    'ps'      , 'psl'     ,
                    'cosmu0'  ,
                    'rsdt'    ,
                    'rsut'    , 'rsutcs'  , 'rlut'    , 'rlutcs'  ,
                    'rsds'    , 'rsdscs'  , 'rlds'    , 'rldscs'  ,
                    'rsus'    , 'rsuscs'  , 'rlus'    ,
                    'ts'      ,
                    'sic'     , 'sit'     ,
                    'albedo'  ,
                    'clt'     ,
                    'prlr'    , 'prls'    , 'prcr'    , 'prcs'    ,
                    'pr'      , 'prw'     , 'cllvi'   , 'clivi'   ,
                    'hfls'    , 'hfss'    , 'evspsbl' ,
                    'tauu'    , 'tauv'    ,
                    'tauu_sso', 'tauv_sso', 'diss_sso',
                    'sfcwind' , 'uas'     , 'vas'     ,
                    'tas'     , 'dew2'    ,
/
EOF
fi


output_phy_3d=yes # "yes" increases the output volume significantly!
#
if [[ "$output_phy_3d" == "yes" ]]; then
  #
  cat >> ${atmo_namelist} << EOF
&output_nml
 output_filename  = "${EXPNAME}_phy_3d"
 filename_format  = "<output_filename>_<levtype_l>_<datetime2>"
 remap            = 0
 output_grid      = .TRUE.
 output_start     = "${start_date}"
 output_end       = "${end_date}"
 output_interval  = "${output_interval}"
 file_interval    = "${file_interval}"
 include_last     = .FALSE.
 ml_varlist       = 'ps'           , 'pfull'        ,
                    'tend_ta'      , 'tend_ta_dyn'  , 'tend_ta_phy'  ,
                    'tend_ta_rlw'  , 'tend_ta_rsw'  ,
                    'tend_ta_vdf'  , 'tend_ta_gwd'  , 'tend_ta_sso'  ,
                    'tend_ta_cnv'  , 'tend_ta_cld'  , 
                    'tend_ua'      , 'tend_ua_dyn'  , 'tend_ua_phy'  ,
                    'tend_ua_vdf'  , 'tend_ua_gwd'  , 'tend_ua_sso'  ,
                    'tend_ua_cnv'  , 
                    'tend_va'      , 'tend_va_dyn'  , 'tend_va_phy'  ,
                    'tend_va_vdf'  , 'tend_va_gwd'  , 'tend_va_sso'  ,
                    'tend_va_cnv'  ,
                    'tend_qhus'    , 'tend_qhus_dyn', 'tend_qhus_phy',
                    'tend_qhus_cld', 'tend_qhus_cnv', 'tend_qhus_vdf',
/
EOF
fi


output_trc_3d=yes # "yes" increases the output volume significantly!
#
if [[ "$output_trc_3d" == "yes" ]]; then
  #
  cat >> ${atmo_namelist} << EOF
&output_nml
 output_filename  = "${EXPNAME}_trc_3d"
 filename_format  = "<output_filename>_<levtype_l>_<datetime2>"
 remap            = 0
 output_grid      = .TRUE.
 output_start     = "${start_date}"
 output_end       = "${end_date}"
 output_interval  = "${output_interval}"
 file_interval    = "${file_interval}"
 include_last     = .FALSE.
 ml_varlist       = 'ps'        , 'pfull'     ,
                    'mairvi_phy',
                    'mdryvi_phy',
                    'mh2ovi_phy',
                    'qhus_phy'  , 'mhusvi_phy', 'tend_mhusvi_phy',
                    'qclw_phy'  , 'mclwvi_phy', 'tend_mclwvi_phy',
                    'qcli_phy'  , 'mclivi_phy', 'tend_mclivi_phy',
                    !'qo3_phy'   , 'mo3vi_phy' , 'tend_mo3vi_phy',
/
EOF
fi

output_aer_3d=no # "yes" needs lrad_aero_diag=.TRUE. in radiation_nml
#
if [[ "$output_aer_3d" == "yes" ]]; then
  #
  cat >> ${atmo_namelist} << EOF
&output_nml
 output_filename  = "${EXPNAME}_aer_3d"
 filename_format  = "<output_filename>_<levtype_l>_<datetime2>"
 remap            = 1
 reg_def_mode     = 1
 reg_lat_def      = ${reg_lat_def_rmb}
 reg_lon_def      = ${reg_lon_def_rmb}
 output_grid      = .TRUE.
 output_start     = "${start_date}"
 output_end       = "${end_date}"
 output_interval  = "${output_interval}"
 file_interval    = "${file_interval}"
 include_last     = .FALSE.
 ml_varlist       = 'ps'          , 'pfull'       ,
                    'aer_aod_533' , 'aer_ssa_533',  'aer_asy_533' , 
                    'aer_aod_2325', 'aer_ssa_2325', 'aer_asy_2325', 
                    'aer_aod_9731',
/
EOF
fi

output_lnd=yes
#
if [[ "$output_lnd" == "yes" ]]; then
  #
  # Currently, the JSBACH output_nml's need to be added to atmo_namelist, but this should 
  # eventually be handled by the lnd_namelist file. 
  cat >> ${atmo_namelist} << EOF
&output_nml
 output_filename  = "${EXPNAME}_lnd"
 filename_format  = "<output_filename>_<levtype_l>_<datetime2>"
 remap            = 0
 output_grid      = .TRUE.
 output_start     = "${start_date}"
 output_end       = "${end_date}"
 output_interval  = "${output_interval}"
 file_interval    = "${file_interval}"
 include_last     = .FALSE.
 ml_varlist       = 'fract', 'alb_vis_srf', 'alb_nir_srf', 't_srf', 'lai', 's_srf', 'qsat_srf'
                    'canopy_cond', 'ws_l', 'ws_fc_l', 'ws_pwp_l', 'ws_sat_l', 'ws'
                    'water_stress', 'ws_root', 'ws_fc_root', 'ws_pwp_root'
                    'albedo_srf', 't_air', 'q_air',
                    'lw_srf_down', 'swnir_srf_down', 'swpar_srf_down', 'swvis_srf_down',
                    'root_depth', 'root_depth_l', 'soil_depth', 'soil_depth_l'
                    'evapotrans', 'sensible_hflx', 'latent_hflx' 
                    'fact_qsat_srf', 'fact_qsat_trans_srf', 'fact_q_air', 'fract_fpc_max', 'fract_fpc'
                    't_srf_unfilt', 't_srf_unfilt_old', 't_srf_old'
                    't_soil', 'wsn_srf', 'wsr_srf', 't_eff_srf', 'grnd_hflx'
                    'sfract_srf', 'wfract_srf', 'sfract_soil', 'sfract_can', 'wfract_can', 'wfract_soil'
                    'q_snocpymlt', 'rough_m_srf', 'rough_h_srf'
/
EOF
fi

#--------------------------------------------------------------------------------------------------
