#=============================================================================
# 
# Run script for RCEMIP ICON-LEM / NWP experiments. See Wing et al. (2018,
# Geosci Mod Dev) for details. See also readme_icon-lem-nwp_rcemip.
# 
# James Ruppert
# james.ruppert@mpimet.mpg.de
# 8 July 2018
#
# ... slightly modified by 
# Nicolas Rochetin
# nicolas.rochetin@mpimet.mpg.de
# 30 August 2018
#=============================================================================
#
atmo_dyn_grids=Torus_Triangles_100x116_1000m.nc
#
#-----------------------------------------------------------------------------
# model time step
modelTimeStep="PT5S"
radiationTimeStep="PT5M"
#
#-----------------------------------------------------------------------------
# start and end date+time
 start_date=${start_date:="2008-08-01T00:00:00Z"}
     end_date=${end_date:="2008-08-01T00:02:00Z"}  # 100 days in full run

calendar="360 day year"

grid='100x116_1000m' # 100 km square
testcase_name='RCEMIP_analytical'

# restart intervals
# checkpoint_interval="P2Y"
# restart_interval="P1M"
checkpoint_interval="P20D" # frequency for writing restart file
restart_interval="P20D" # stop the simulation at this interval

# output intervals
# output_interval_2d="PT1H"
# output_interval_3d="PT1H"
 output_interval_2d="PT5S"
 output_interval_3d="PT5S"
 file_interval_2d="PT8H"
 file_interval_3d="PT8H"
#
 output_atm_cgrid="no" # 1 file
 output_atm_2d="yes"   # 1 file 
 output_atm_3d="yes"   # 1 file
 output_phy_3d="no"   # 1 file
#
# determine the number of io processes
#
num_io_procs=0

if [[ "$output_atm_cgrid" == "yes" ]]; then
  num_io_procs=`expr ${num_io_procs} + 1`
fi
if [[ "$output_atm_2d" == "yes" ]]; then
  num_io_procs=`expr ${num_io_procs} + 1`
fi
if [[ "$output_atm_3d" == "yes" ]]; then
  num_io_procs=`expr ${num_io_procs} + 2`
fi
if [[ "$output_phy_3d" == "yes" ]]; then
  num_io_procs=`expr ${num_io_procs} + 4`
fi

# namelist files
atmo_namelist=NAMELIST_${EXPNAME}_atm

#-----------------------------------------------------------------------------
#
# write icon namelist parameters
# ------------------------
# for a complete list see namelist_overview and namelist_overview.pdf
#
cat >> ${atmo_namelist} << EOF
&parallel_nml
 nproma            = ${nproma}
 num_io_procs      = ${num_io_procs}
 !num_restart_procs = 1
/
&grid_nml
 dynamics_grid_filename = "${atmo_dyn_grids}",
/
&run_nml
 num_lev        = 75,     ! number of full levels of vertical grid
 modelTimeStep  = "$modelTimeStep"
 ltestcase      = .TRUE.       ! run testcase
 ltransport     = .TRUE.
 ntracer        = 0            ! the model updates this for the microphysics vars
 iforcing       = 2  ! 3: NWP forcing; 6:inhecham forcing
 ltimer         = .true.       ! 
 output         = 'nml'
 msg_level      = 12           ! detailed report during integration
 restart_filename = "${EXPNAME}_restart_atm_<rsttime>.nc"
 activate_sync_timers = .TRUE.
 profiling_output = 1           ! aggregated: 1; detailed: 2; in files: 3
/
&nh_testcase_nml
 nh_test_name   = 'RCEMIP_analytical'     ! test case identifier
 ape_sst_case   = 'sst_const'
 ape_sst_val    = 26.85 ! fixed SST in degree Celsius
 tpe_temp       = 300.0 ! fixed SST in degree Celsius
 w_perturb      = 0.1        ! m/s, default=0.05
 th_perturb     = 0.3        ! K, default=0.2
 zenithang      = 42.05 ! degrees ! the following three parameters have no
 sol_const      = 551.58          ! effect in echam physics.
 albedo_set     = 0.07 ! fixed surface albedo; default is 0.07
/
&nonhydrostatic_nml
 ivctype        = 2       ! sleve vertical coordinate
 damp_height    = 19000.  ! top_height-damp_height should be about 15km
 rayleigh_type  = 1       ! 1 = Classical (all vars), 2 = w only
! rayleigh_coeff = 0.25    ! default: 0.05 /s (with rayleigh_type = 2)
 rayleigh_coeff = 0.003    ! default: 0.05 /s (with rayleigh_type = 2)
 l_open_ubc     = .FALSE. ! Open upper boundary condition?
/
&sleve_nml
 top_height = 48000.0 ! these settings yield an actual model top of about 34 km
 min_lay_thckn = 75. ! thickness of lowest model layer
 max_lay_thckn   = 500.    ! max thickness
 htop_thcknlimit = 40000.0 ! dont exceed max_lay_thckn below this height
 stretch_fac     = 1.2     ! values > 1 increase dz near model top
/
&dynamics_nml
 iequations     = 3       ! equation system
 idiv_method    = 1
 divavg_cntrwgt = 0.50
 lcoriolis      = .FALSE.
/
&transport_nml
 tracer_names     = 'hus','clw','cli','qr','qs','qg','qh','qnc','qni','qnr','qns','qng','qnh','ninact'
 ivadv_tracer     =    3 ,   3 ,   3 ,  3 ,  3 ,  3 ,  3 ,   3 ,   3 ,   3 ,   3 ,   3 ,   3 ,    3
 itype_hlimit     =    3 ,   4 ,   4 ,  4 ,  4 ,  4 ,  4 ,   4 ,   4 ,   4 ,   4 ,   4 ,   4 ,    4
 ihadv_tracer     =   52 ,   2 ,   2 ,  2 ,  2 ,  2 ,  2 ,   2 ,   2 ,   2 ,   2 ,   2 ,   2 ,    2
/
&echam_phy_nml
!
! domain 1
! --------
!
! atmospheric phyiscs (""=never)
 echam_phy_config(1)%dt_rad = "$radiationTimeStep"
 echam_phy_config(1)%dt_vdf = "$modelTimeStep"
 echam_phy_config(1)%dt_cnv = ""
 echam_phy_config(1)%dt_cld = ""
 echam_phy_config(1)%dt_mig = ""
 echam_phy_config(1)%dt_two = "$modelTimeStep"
 echam_phy_config(1)%dt_gwd = ""
 echam_phy_config(1)%dt_sso = ""
/
!
! atmospheric chemistry (""=never)
 echam_phy_config(1)%dt_mox = ""
 echam_phy_config(1)%dt_car = ""
 echam_phy_config(1)%dt_art = ""
!
! surface (.TRUE. or .FALSE.)
 echam_phy_config(1)%ljsb   = .FALSE.
 echam_phy_config(1)%lamip  = .FALSE.
 echam_phy_config(1)%l2moment  = .TRUE.
 echam_phy_config(1)%lice   = .FALSE.
 echam_phy_config(1)%lmlo   = .FALSE.
 echam_phy_config(1)%llake  = .FALSE.
!
! fix negative humidity
 echam_phy_config(1)%iqneg_d2p = 2
 echam_phy_config(1)%iqneg_p2d = 2
! set htop_moist_proc also as top of graupel calculation
 echam_phy_config(1)%zmaxcloudy = 22500.
/
&echam_rad_nml
!
! domain 1
! --------
!
 echam_rad_config(1)%isolrad    =  7
 echam_rad_config(1)%l_orbvsop87= .FALSE.
 echam_rad_config(1)%cecc       = 0.0
 echam_rad_config(1)%cobld      = 0.0
 echam_rad_config(1)%ldiur      = .FALSE.
 echam_rad_config(1)%l_sph_symm_irr = .TRUE.
 echam_rad_config(1)%irad_h2o   =  1
 echam_rad_config(1)%irad_co2   =  2
 echam_rad_config(1)%irad_ch4   =  2
 echam_rad_config(1)%irad_n2o   =  2
 echam_rad_config(1)%irad_o3    =  4
 echam_rad_config(1)%irad_o2    =  0
 echam_rad_config(1)%irad_cfc11 =  0
 echam_rad_config(1)%irad_cfc12 =  0
 echam_rad_config(1)%irad_aero  =  0
 echam_rad_config(1)%vmr_co2    =  348.e-06 ! RCEMIP values; modern-day values
 echam_rad_config(1)%vmr_ch4    = 1650.e-09
 echam_rad_config(1)%vmr_n2o    =  306.e-09
/
&echam_vdf_nml
 echam_vdf_config(1)%pr0        =  0.7
/
&echam_cnv_nml
/
&echam_cld_nml
/
&echam_cop_nml
 echam_cop_config(1)%cn1lnd     =  50.0
 echam_cop_config(1)%cn2lnd     = 220.0
 echam_cop_config(1)%cn1sea     =  50.0
 echam_cop_config(1)%cn2sea     = 100.0
 echam_cop_config(1)%cinhomi    =   1.0
 echam_cop_config(1)%cinhoml1   =   1.0
 echam_cop_config(1)%cinhoml2   =   1.0
 echam_cop_config(1)%cinhoml3   =   1.0
/
&echam_mig_nml
/
&echam_cov_nml
 echam_cov_config(1)%icov       = 3     ! 0/1 cloud cover based on cloud water and ice
 echam_cov_config(1)%cqx        = 1.e-6
/
&extpar_nml
 itopo          = 0 ! 0: analytical topo; 1: topography/ext. data read from file
/
EOF
#
#----------------------------------------------------------------------------------
# add standard atmo_non-hydrostatic_files
add_link_file ${basedir}/data/lsdata.nc                   ./
add_link_file ${basedir}/data/rrtmg_lw.nc                 ./ 
add_link_file ${basedir}/data/ECHAM6_CldOptProps.nc       ./
add_link_file ${basedir}/data/dmin_wetgrowth_lookup.nc    ./    #for inwp_gscp==4

# boundary conditions
#
# range of years for yearly files
# assume start_date and end_date have the format yyyy-...
start_year=$(( ${start_date%%-*} - 1 ))
end_year=$(( ${end_date%%-*} + 1 ))
#
# - ozone
datadir=${basedir}/data/external
add_link_file ${datadir}/rcemip_analytical_o3_${grid}_echam_plev.nc     ./bc_ozone.nc
# namelist files
#
add_required_file ${basedir}/run/${atmo_namelist}                       ./

# dictionary file for output variable names
#
dict_file="dict.${EXPNAME}"
cat dict.iconam.mpim  > ${dict_file}
add_required_file ${basedir}/run/${dict_file}                           ./

#----------------------------------------------------------------------------------
#
# 
# End of namelist settings, automatic settings below.
# Model output directory is set below.
# 
#----------------------------------------------------------------------------------
#--------------------------------------------------------------------------------------------------

# (5) Define the output

# Parameters for all output files
# -------------------------------
cat >> ${atmo_namelist} << EOF
&io_nml
 lkeep_in_sync  = .true.
 lflux_avg      = .FALSE. ! default is true. True = time-ave, False = accumulated.
 output_nml_dict  = "${dict_file}"
 netcdf_dict      = "${dict_file}"
 lnetcdf_flt64_output = .TRUE.
 itype_pres_msl   = 4
 restart_file_type= 5
 !restart_write_mode = "joint procs multifile"    !not necessary/useful in default r2b4 setup
/
EOF

# Define output files
# -------------------
#
# output_<xyz>=yes : yes --> output files for <xyz>, any other value --> no files for <xyz>
#
# 3-dimensional files include 'ps' and 'pfull' to allow the vertical
# interpolation to pressure levels by cdo ap2pl.

#
if [[ "$output_atm_cgrid" == "yes" ]]; then
  #
  cat >> ${atmo_namelist} << EOF
&output_nml
 output_filename  = "${EXPNAME}_atm_cgrid"
 filename_format  = "<output_filename>_<levtype_l>"
 filetype         = 5
 remap            = 0
 output_grid      = .TRUE.
 output_start     = "${start_date}"          ! output_start = output_end
 output_end       = "${start_date}"          ! --> write once only irrespective of
 output_interval  = "${output_interval_2d}"  !     the output interval and
 file_interval    = "${file_interval_2d}"    !     the file interval
  ml_varlist       = 'clon'   , 'clat' , 'areacella', 'zghalf' , 'zg'   ,
/
EOF
fi


#
if [[ "$output_atm_3d" == "yes" ]]; then
  #
  cat >> ${atmo_namelist} << EOF
&output_nml
 output_filename  = "${EXPNAME}_atm_3d_1"
 filename_format  = "<output_filename>_<levtype_l>_<datetime2>"
 filetype         = 5
 remap            = 0
 output_grid      = .FALSE.
 output_start     = "${start_date}"
 output_end       = "${end_date}"
 output_interval  = "${output_interval_2d}"
 file_interval    = "${file_interval_2d}"
 include_last     = .FALSE.
 ml_varlist       = 'pres_sfc'      , 'pres'   , 'zg'      ,
                    'rho'     , 'temp'      , 'theta_v' ,
                    'u'      , 'v'      , 'w'     ,
                    'hus'     , 'clw'     , 'cli'     ,
                    'cl'      ,
                    'qr'      , 'qs'      , 'qg'      ,'qh',
/
EOF
  #
  cat >> ${atmo_namelist} << EOF
&output_nml
 output_filename  = "${EXPNAME}_atm_3d_2"
 filename_format  = "<output_filename>_<levtype_l>_<datetime2>"
 filetype         = 5
 remap            = 0
 output_grid      = .FALSE.
 output_start     = "${start_date}"
 output_end       = "${end_date}"
 output_interval  = "${output_interval_2d}"
 file_interval    = "${file_interval_2d}"
 include_last     = .FALSE.
 ml_varlist       = 'qnc','qni','qnr','qns','qng','qnh','ninact'
/
EOF
fi

#
if [[ "$output_atm_2d" == "yes" ]]; then
  #
  cat >> ${atmo_namelist} << EOF
&output_nml
 output_filename  = "${EXPNAME}_atm_2d"
 filename_format  = "<output_filename>_<levtype_l>_<datetime2>"
 filetype         = 5
 remap            = 0
 output_grid      = .FALSE.
 output_start     = "${start_date}"
 output_end       = "${end_date}"
 output_interval  = "${output_interval_2d}"
 file_interval    = "${file_interval_2d}"
 include_last     = .FALSE.
 ml_varlist       = 'pres_sfc'      ,
                    'cosmu0'  , 'emissivity', 'z0m' ,
                    'rsdt'    ,
                    'rsut'    , 'rsutcs'  , 'rlut'    , 'rlutcs'  ,
                    'rsds'    , 'rsdscs'  , 'rlds'    , 'rldscs'  ,
                    'rsus'    , 'rsuscs'  , 'rlus'    ,
                    'ts'      ,
                    'albedo'  ,
                    'clt'     ,
                    'prlr'    , 'prls'    ,
                    'rain_gsp_rate', 'ice_gsp_rate', 'graupel_gsp_rate',
                    'snow_gsp_rate', 'hail_gsp_rate',
                    'pr'      , 'prw'     , 'cllvi'   , 'clivi'   ,
                    'qgvi'    , 'qrvi'    , 'qsvi'    ,'qhvi',
                    'hfls'    , 'hfss'    , 'evspsbl' ,
/
EOF
fi

if [[ "$output_phy_3d" == "yes" ]]; then
#
 cat >> ${atmo_namelist} << EOF
&output_nml
 output_filename  = "${EXPNAME}_phy_3d"
 filename_format  = "<output_filename>_<levtype_l>_<datetime2>"
 filetype         = 5
 remap            = 0
 output_grid      = .TRUE.
 output_start     = "${start_date}"
 output_end       = "${end_date}"
 output_interval  = "${output_interval_2d}"
 file_interval    = "${file_interval_2d}"
 include_last     = .FALSE.
 ml_varlist       = 'pres_sfc'      , 'pres'   , 'z_mc'      ,
                    'tend_ta_vdf'   , 'tend_ua_vdf'   , 'tend_va_vdf'   ,
                    'tend_qhus_vdf' , 'tend_qclw_vdf' , 'tend_qcli_vdf' ,
                    'tend_qqr_vdf'  , 'tend_qqs_vdf'  , 'tend_qqg_vdf'  ,
                    'tend_qqh_vdf'  , 'tend_qqnc_vdf' , 'tend_qqni_vdf' ,
                    'tend_qqnr_vdf' , 'tend_qqns_vdf' , 'tend_qqng_vdf' ,
                    'tend_qqnh_vdf' , 'tend_qninact_vdf'  ,
/
EOF
#
  cat >> ${atmo_namelist} << EOF
&output_nml
 output_filename  = "${EXPNAME}_two_3d_in"
 filename_format  = "<output_filename>_<levtype_l>_<datetime2>"
 filetype         = 5
 remap            = 0
 output_grid      = .TRUE.
 output_start     = "${start_date}"
 output_end       = "${end_date}"
 output_interval  = "${output_interval_2d}"
 file_interval    = "${file_interval_2d}"
 include_last     = .FALSE.
 ml_varlist       = 'in_ta_two'  , 'in_qv_two'  , 'in_qc_two'  ,
                    'in_qi_two'  , 'in_qr_two'  , 'in_qs_two'  ,
                    'in_qg_two'  , 'in_qh_two'  ,
                    'in_qnc_two' , 'in_qni_two' , 'in_qnr_two' ,
                    'in_qns_two' , 'in_qng_two' , 'in_qnh_two' , 'in_ninact_two' ,
/
EOF
#
  cat >> ${atmo_namelist} << EOF
&output_nml
 output_filename  = "${EXPNAME}_two_3d_out"
 filename_format  = "<output_filename>_<levtype_l>_<datetime2>"
 filetype         = 5
 remap            = 0
 output_grid      = .TRUE.
 output_start     = "${start_date}"
 output_end       = "${end_date}"
 output_interval  = "${output_interval_2d}"
 file_interval    = "${file_interval_2d}"
 include_last     = .FALSE.
 ml_varlist       = 'out_ta_two'  , 'out_qv_two'  , 'out_qc_two'  ,
                    'out_qi_two'  , 'out_qr_two'  , 'out_qs_two'  ,
                    'out_qg_two'  , 'out_qh_two'  ,
                    'out_qnc_two' , 'out_qni_two' , 'out_qnr_two' ,
                    'out_qns_two' , 'out_qng_two' , 'out_qnh_two' , 'out_ninact_two' ,
/
EOF
#
  cat >> ${atmo_namelist} << EOF
&output_nml
 output_filename  = "${EXPNAME}_two_3d_tend"
 filename_format  = "<output_filename>_<levtype_l>_<datetime2>"
 filetype         = 5
 remap            = 0
 output_grid      = .TRUE.
 output_start     = "${start_date}"
 output_end       = "${end_date}"
 output_interval  = "${output_interval_2d}"
 file_interval    = "${file_interval_2d}"
 include_last     = .FALSE.
 ml_varlist       = 'tend_ta_two'  , 'tend_qv_two'  ,
                    'tend_qc_two'  ,
                    'tend_qi_two'  , 'tend_qr_two'  , 'tend_qs_two'  ,
                    'tend_qg_two'  , 'tend_qh_two'  ,
                    'tend_ninact_two'  , 'tend_qnc_two'  , 'tend_qni_two'  ,
                    'tend_qnr_two'  , 'tend_qns_two'  , 'tend_qng_two'  , 'tend_qnh_two'  ,
/
EOF
fi

