#--------------------------------------------------------------------------------------------------
#
# AMIP experiment without forcing and transport
#
author_list="Marco Giorgetta, MPIM"
#
#--------------------------------------------------------------------------------------------------
#
# This file describes an AMIP experiment based on the non-hydrostatic atmosphere.
# Forcing and transport are switched off.
# The experiment is intialized from IFS analysis.
#
# _bb_table_Description_  AMIP experiment, no forcing, no transport
# _bb_table_Model_        non-hydrostatic atmosphere
#
#--------------------------------------------------------------------------------------------------

# (0) unset some setting of create_target_header for mistral

unset OMPI_MCA_coll_fca_enable
unset OMPI_MCA_coll_fca_priority

#--------------------------------------------------------------------------------------------------

# (1) Variables provided by the scripting mechanism

# EXPNAME                       = name of exp. in 'exp.<name>'
# basedir                       = base directory, where src/, run/ etc exist
# icon_data_poolFolder          = base directory, where grids/, input/ and setup/ exist
# nproma                        = blocking length for array dimensioning and inner loop lengths

# overwrite the default setting with the new path

icon_data_poolFolder="/pool/data/ICON/grids/private/mpim/icon_preprocessing/source"

#--------------------------------------------------------------------------------------------------

# (2) Set variables needed by the scripting mechanism

# horizontal grid(s)
grid_name=icon_grid_0005_R02B04_G
grids_folder=${icon_data_poolFolder}/grids
atmo_dyn_grids=${grid_name}.nc

resolution_a=$(awk -F'_' '{print $4}' <<< $grid_name)
resolution_b=${resolution_a/0/}

# start and end date+time
start_date="1979-01-01T00:00:00Z"
  end_date="1979-01-01T00:16:00Z"

# restart intervals
checkpoint_interval="PT8M"
restart_interval="PT16M"

# output intervals
output_interval="PT4M"
file_interval="PT4M"

# namelist files
atmo_namelist=NAMELIST_${EXPNAME}_atm

#--------------------------------------------------------------------------------------------------

# (3) Define the model configuration

# atmospheric dynamics and physics
# --------------------------------
cat > ${atmo_namelist} << EOF
!
&parallel_nml
 nproma           = ${nproma}
/
&grid_nml
 dynamics_grid_filename = "${atmo_dyn_grids}",
/
&run_nml
 num_lev          = 47          ! number of full levels
 modelTimeStep    = "PT4M"
 ltestcase        = .FALSE.     ! run testcase
 ldynamics        = .TRUE.      ! dynamics
 ltransport       = .FALSE.     ! transport
 ntracer          = 4           ! number of tracers
 iforcing         = 0           ! 0: none, 1: HS, 2: ECHAM, 3: NWP
 output           = 'nml'
 msg_level        = 15          ! level of details report during integration 
 restart_filename = "${EXPNAME}_restart_atm_<rsttime>.nc"
 activate_sync_timers = .TRUE.
/
&extpar_nml
 itopo            = 1           ! 1: read topography from the grid file
 l_emiss          = .FALSE.
/
&initicon_nml
 init_mode        = 2           ! 2: initialize from IFS analysis
/
&nonhydrostatic_nml
 ndyn_substeps    = 2           ! dtime/dt_dyn
 damp_height      = 50000.      ! [m]
 rayleigh_coeff   = 0.10
 vwind_offctr     = 0.2
 divdamp_fac      = 0.004
/
&interpol_nml
 rbf_scale_mode_ll = 1
/
&sleve_nml
 min_lay_thckn    = 40.         ! [m]
 top_height       = 83000.      ! [m]
 stretch_fac      = 0.9
 decay_scale_1    = 4000.       ! [m]
 decay_scale_2    = 2500.       ! [m]
 decay_exp        = 1.2
 flat_height      = 16000.      ! [m]
/
&diffusion_nml
/
&transport_nml
 tracer_names     = 'v','c','i','4'       ! water vapour, cloud water, cloud ice, tracer 4
/
EOF

#--------------------------------------------------------------------------------------------------

# (4) Define the input

# namelist files
#
add_required_file ${basedir}/run/${atmo_namelist}                       ./

# dictionary file for output variable names
#
dict_file="dict.${EXPNAME}"
cat dict.iconam.mpim  > ${dict_file}
add_required_file ${basedir}/run/${dict_file}                           ./

# initial conditions
#
# - atmosphere: ECMWF analysis, 1979-01-01T00:00:00Z
datadir=${icon_data_poolFolder}/initial_condition
add_link_file $datadir/ifs2icon_1979010100_${resolution_a}_G.nc ./ifs2icon_${resolution_b}_DOM01.nc

#--------------------------------------------------------------------------------------------------

# (5) Define the output

# Parameters for all output files
# -------------------------------
cat >> ${atmo_namelist} << EOF
&io_nml
 output_nml_dict  = "${dict_file}"
 netcdf_dict      = "${dict_file}"
 lnetcdf_flt64_output = .TRUE.
/
EOF

# Define output files
# -------------------
#
# output_<xyz>=yes : yes --> output files for <xyz>, any other value --> no files for <xyz>
#
# 3-dimensional files include 'ps' and 'pfull' to allow the vertical
# interpolation to pressure levels by cdo ap2pl.

output_atm_3d=yes
#
if [[ "$output_atm_3d" == "yes" ]]; then
  #
  cat >> ${atmo_namelist} << EOF
&output_nml
 output_filename  = "${EXPNAME}_atm_3d"
 filename_format  = "<output_filename>_<levtype_l>_<datetime2>"
 remap            = 0
 output_grid      = .TRUE.
 output_start     = "${start_date}"
 output_end       = "${end_date}"
 output_interval  = "${output_interval}"
 file_interval    = "${file_interval}"
 include_last     = .FALSE.
 ml_varlist       = 'ps'      , 'pfull'   , 'zg'      ,
                    'rho'     , 'ta'      ,
                    'ua'      , 'va'      , 'wap'     ,
                    'hus'     , 'clw'     , 'cli'     ,
/
EOF
fi

output_trc_3d=yes
#
if [[ "$output_trc_3d" == "yes" ]]; then
  #
  cat >> ${atmo_namelist} << EOF
&output_nml
 output_filename  = "${EXPNAME}_trc_3d"
 filename_format  = "<output_filename>_<levtype_l>_<datetime2>"
 remap            = 0
 output_grid      = .TRUE.
 output_start     = "${start_date}"
 output_end       = "${end_date}"
 output_interval  = "${output_interval}"
 file_interval    = "${file_interval}"
 include_last     = .FALSE.
 ml_varlist       = 'ps'        , 'pfull'     ,
                    'q4'        ,
/
EOF
fi

#--------------------------------------------------------------------------------------------------
