#--------------------------------------------------------------------------------------------------
#
# Held-Suarez Experiment
#
author_list="Marco Giorgetta, MPIM"
#
#--------------------------------------------------------------------------------------------------
#
# This file describes the Held-Suarez experiment based on the non-hydrostatic atmosphere.
# The experiment is intialized analytically and uses constant-in-time boundary conditions for:
# - surface height
# - zonal mean reference temperature
#
# _bb_table_Description_  Held-Suarez experiment
# _bb_table_Model_        non-hydrostatic atmosphere
#
#--------------------------------------------------------------------------------------------------

# (0) unset some setting of create_target_header for mistral

unset OMPI_MCA_coll_fca_enable
unset OMPI_MCA_coll_fca_priority

#--------------------------------------------------------------------------------------------------

# (1) Variables provided by the scripting mechanism

# EXPNAME                       = name of exp. in 'exp.<name>'
# basedir                       = base directory, where src/, run/ etc exist
# icon_data_poolFolder          = base directory, where grids/, input/ and setup/ exist
# nproma                        = blocking length for array dimensioning and inner loop lengths

icon_data_poolFolder="${icon_data_rootFolder:-/pool/data/ICON}/grids/private/mpim/icon_preprocessing/source"

#--------------------------------------------------------------------------------------------------

# (2) Set variables needed by the scripting mechanism

# horizontal grid(s)
#
grids_folder=${icon_data_poolFolder}/grids
#
# domain globe
grid_id=0005
grid_refinement=R02B04
grid_label=G
grid_name=icon_grid_${grid_id}_${grid_refinement}_${grid_label}
#
atmo_dyn_grids="'${grid_name}.nc',"

# start and end date+time
start_date=${start_date:="0001-01-01T00:00:00Z"}
    end_date=${end_date:="0001-01-01T01:00:00Z"}

calendar="360 day year"

# restart intervals
checkpoint_interval="PT30M"
restart_interval="PT60M"

# output intervals
output_interval="PT10M"
file_interval="PT10M"

# namelist files
atmo_namelist=NAMELIST_${EXPNAME}_atm

#--------------------------------------------------------------------------------------------------

# (3) Define the model configuration

# atmospheric dynamics and forcing
# --------------------------------
cat > ${atmo_namelist} << EOF
!
&parallel_nml
 nproma           = ${nproma}
/
&grid_nml
 dynamics_grid_filename = ${atmo_dyn_grids}
/
&run_nml
 num_lev          = 47          ! number of full levels
 modelTimeStep    = "PT10M"
 ltestcase        = .TRUE.      ! run testcase
 ldynamics        = .TRUE.      ! dynamics
 ltransport       = .FALSE.     ! transport
 ntracer          = 0           ! number of tracers
 iforcing         = 1           ! 0: none, 1: HS, 2: ECHAM, 3: NWP
 output           = 'nml'
 msg_level        = 15          ! level of details report during integration 
 restart_filename = "${EXPNAME}_restart_atm_<rsttime>.nc"
 activate_sync_timers = .TRUE.
/
&nh_testcase_nml
 nh_test_name     = 'HS_nh'     ! initialize an isothermal windless atmosphere over a flat surface
                                ! for the non-hydrostatic Held Suarez exp.
 lhs_nh_vn_ptb    = .FALSE.     ! do not use random normal wind perturbation in initial state
 lhs_fric_heat    = .FALSE.     ! do not apply frictional heating
/
&nonhydrostatic_nml
 ndyn_substeps    = 5           ! dtime/dt_dyn
 damp_height      = 50000.      ! [m]
 rayleigh_coeff   = 10.0
 vwind_offctr     = 0.2
 divdamp_fac      = 0.004
/
&interpol_nml
 rbf_scale_mode_ll = 1
/
&sleve_nml
 min_lay_thckn    = 40.         ! [m]
 top_height       = 83000.      ! [m]
 stretch_fac      = 0.9
 decay_scale_1    = 4000.       ! [m]
 decay_scale_2    = 2500.       ! [m]
 decay_exp        = 1.2
 flat_height      = 16000.      ! [m]
/
&diffusion_nml
/
EOF

#--------------------------------------------------------------------------------------------------

# (4) Define the input

# namelist files
#
add_required_file ${basedir}/run/${atmo_namelist}                       ./

# dictionary file for output variable names
#
dict_file="dict.${EXPNAME}"
cat dict.iconam.mpim  > ${dict_file}
add_required_file ${basedir}/run/${dict_file}                           ./

#--------------------------------------------------------------------------------------------------

# (5) Define the output

# Parameters for all output files
# -------------------------------
cat >> ${atmo_namelist} << EOF
&io_nml
 output_nml_dict  = "${dict_file}"
 netcdf_dict      = "${dict_file}"
 lnetcdf_flt64_output = .TRUE.
 itype_pres_msl   = 4
 restart_file_type= 5
 !restart_write_mode = "joint procs multifile"    !not necessary/useful in default r2b4 setup
/
EOF

# Define output files
# -------------------
#
# output=yes : yes --> output files; any other value --> no output files

output=yes
#
if [[ "$output" == "yes" ]]; then
  #
  cat >> ${atmo_namelist} << EOF
&output_nml
 output_filename  = "${EXPNAME}"
 filename_format  = "<output_filename>_<levtype_l>_<datetime2>"
 filetype         = 5
 remap            = 0
 output_grid      = .TRUE.
 output_start     = "${start_date}"
 output_end       = "${end_date}"
 output_interval  = "${output_interval}"
 file_interval    = "${file_interval}"
 include_last     = .FALSE.
 ml_varlist       = 'ps'
 p_levels         = 75000
 pl_varlist       = 'ta'
 h_levels         = 80047,74660,70019,65769,61817,58113,54625,51329,48207,45246,42432,39757,37212,
                    34790,32483,30286,28194,26202,24305,22501,20785,19153,17604,16134,14740,13420,
		    12172,10994, 9884, 8839, 7859, 6942, 6086, 5289, 4552, 3872, 3249, 2681, 2168,
		     1710, 1306,  955,  657,  414,  225,   92,   20
 hl_varlist       = 'ta','ua','va','wa','rho','pfull'
/
EOF
fi

#--------------------------------------------------------------------------------------------------
