#--------------------------------------------------------------------------------------------------
#
# AMIP experiment without parameterizations
#
author_list="Marco Giorgetta, MPIM"
#
#--------------------------------------------------------------------------------------------------
#
# This file describes an AMIP experiment based on the non-hydrostatic atmosphere and the
# ECHAM physics, but with each parameterizations switched off.
# The experiment is intialized from IFS analysis.
#
# _bb_table_Description_  AMIP experiment, no parameterizations
# _bb_table_Model_        non-hydrostatic atmosphere with ECHAM physics
#
#--------------------------------------------------------------------------------------------------

# (0) unset some setting of create_target_header for mistral

unset OMPI_MCA_coll_fca_enable
unset OMPI_MCA_coll_fca_priority

#--------------------------------------------------------------------------------------------------

# (1) Variables provided by the scripting mechanism

# EXPNAME                       = name of exp. in 'exp.<name>'
# basedir                       = base directory, where src/, run/ etc exist
# icon_data_poolFolder          = base directory, where grids/, input/ and setup/ exist
# nproma                        = blocking length for array dimensioning and inner loop lengths

icon_data_poolFolder="${icon_data_poolFolder:-/pool/data/ICON}/grids/private/mpim/icon_preprocessing/source"

#--------------------------------------------------------------------------------------------------

# (2) Set variables needed by the scripting mechanism

# horizontal grid(s)
#
grids_folder=${icon_data_poolFolder}/grids
#
# domain globe
grid_id=0005
grid_refinement=R02B04
grid_label=G
grid_name=icon_grid_${grid_id}_${grid_refinement}_${grid_label}
#
atmo_dyn_grids="'${grid_name}.nc',"

# start and end date+time
start_date=${start_date:="1979-01-01T00:00:00Z"}
    end_date=${end_date:="1979-01-01T00:16:00Z"}

# restart intervals
checkpoint_interval="PT8M"
restart_interval="PT16M"

# output intervals
output_interval="PT4M"
file_interval="PT4M"

# namelist files
atmo_namelist=NAMELIST_${EXPNAME}_atm

#--------------------------------------------------------------------------------------------------

# (3) Define the model configuration

# JSBACH settings
# none

# atmospheric dynamics and physics
# --------------------------------
cat > ${atmo_namelist} << EOF
!
&parallel_nml
 nproma           = ${nproma}
/
&grid_nml
 dynamics_grid_filename = ${atmo_dyn_grids}
/
&run_nml
 num_lev          = 47          ! number of full levels
 modelTimeStep    = "PT4M"
 ltestcase        = .FALSE.     ! run testcase
 ldynamics        = .TRUE.      ! dynamics
 ltransport       = .TRUE.      ! transport
 ntracer          = 3           ! number of tracers; 3: hus, clw, cli; 4: hus, clw, cli, o3
 iforcing         = 2           ! 0: none, 1: HS, 2: ECHAM, 3: NWP
 output           = 'nml'
 msg_level        = 15          ! level of details report during integration 
 restart_filename = "${EXPNAME}_restart_atm_<rsttime>.nc"
 activate_sync_timers = .TRUE.
/
&extpar_nml
 itopo            = 1           ! 1: read topography from the grid file
 l_emiss          = .FALSE.
/
&initicon_nml
 init_mode        = 2           ! 2: initialize from IFS analysis
 ifs2icon_filename= "ifs2icon.nc"
/
&nonhydrostatic_nml
 ndyn_substeps    = 2           ! dtime/dt_dyn
 damp_height      = 50000.      ! [m]
 rayleigh_coeff   = 0.10
 vwind_offctr     = 0.2
 divdamp_fac      = 0.004
/
&interpol_nml
 rbf_scale_mode_ll = 1
/
&sleve_nml
 min_lay_thckn    = 40.         ! [m]
 top_height       = 83000.      ! [m]
 stretch_fac      = 0.9
 decay_scale_1    = 4000.       ! [m]
 decay_scale_2    = 2500.       ! [m]
 decay_exp        = 1.2
 flat_height      = 16000.      ! [m]
/
&diffusion_nml
/
&transport_nml
!                   hus,clw,cli, o3
 ivadv_tracer     =   3,  3,  3,  3
 itype_hlimit     =   3,  4,  4,  3
 ihadv_tracer     =  52,  2,  2, 52
/
&echam_phy_nml
!
! domain 1
! --------
!
! atmospheric phyiscs (""=never)
 echam_phy_config(1)%dt_rad = ""
 echam_phy_config(1)%dt_vdf = ""
 echam_phy_config(1)%dt_cnv = ""
 echam_phy_config(1)%dt_cld = ""
 echam_phy_config(1)%dt_gwd = ""
 echam_phy_config(1)%dt_sso = ""
!
! atmospheric chemistry (""=never)
 echam_phy_config(1)%dt_mox = ""
 echam_phy_config(1)%dt_car = ""
 echam_phy_config(1)%dt_art = ""
!
! surface (.TRUE. or .FALSE.)
 echam_phy_config(1)%ljsb   = .FALSE
 echam_phy_config(1)%lamip  = .TRUE.
 echam_phy_config(1)%lice   = .FALSE.
 echam_phy_config(1)%lmlo   = .FALSE.
 echam_phy_config(1)%llake  = .FALSE.
/
EOF

#--------------------------------------------------------------------------------------------------

# (4) Define the input

# namelist files
#
add_required_file ${basedir}/run/${atmo_namelist}                       ./

# dictionary file for output variable names
#
dict_file="dict.${EXPNAME}"
cat dict.iconam.mpim  > ${dict_file}
add_required_file ${basedir}/run/${dict_file}                           ./

# initial conditions
#
# - atmosphere: ECMWF analysis, 1979-01-01T00:00:00Z
datadir=${icon_data_poolFolder}/initial_condition
add_link_file $datadir/ifs2icon_1979010100_${grid_refinement}_${grid_label}.nc ./ifs2icon.nc

# boundary conditions
#
# - topography
datadir=${icon_data_poolFolder}/preliminary_land_22-02-2018/${grid_refinement}_${grid_label}/land
add_link_file $datadir/bc_land_sso_1976.nc                              ./bc_land_sso.nc
#
# - land parameters
datadir=${icon_data_poolFolder}/preliminary_land/r0002/${grid_refinement}_${grid_label}/land
add_link_file $datadir/bc_land_frac_${pft_file_tag}1976.nc              ./bc_land_frac.nc

#--------------------------------------------------------------------------------------------------

# (5) Define the output

# Parameters for all output files
# -------------------------------
cat >> ${atmo_namelist} << EOF
&io_nml
 output_nml_dict  = "${dict_file}"
 netcdf_dict      = "${dict_file}"
 lnetcdf_flt64_output = .TRUE.
 itype_pres_msl   = 4
 restart_file_type= 5
 !restart_write_mode = "joint procs multifile"    !not necessary/useful in default r2b4 setup
/
EOF

# Define output files
# -------------------
#
# output_<xyz>=yes : yes --> output files for <xyz>, any other value --> no files for <xyz>
#
# 3-dimensional files include 'ps' and 'pfull' to allow the vertical
# interpolation to pressure levels by cdo ap2pl.

output_atm_vgrid=yes
#
if [[ "$output_atm_vgrid" == "yes" ]]; then
  #
  cat >> ${atmo_namelist} << EOF
&output_nml
 output_filename  = "${EXPNAME}_atm_vgrid"
 filename_format  = "<output_filename>_<levtype_l>"
 filetype         = 5
 remap            = 0
 output_grid      = .TRUE.
 output_start     = "${start_date}"       ! output_start = output_end
 output_end       = "${start_date}"       ! --> write once only irrespective of
 output_interval  = "${output_interval}"  !     the output interval and
 file_interval    = "${file_interval}"    !     the file interval
 ml_varlist       = 'zghalf'  , 'zg'      , 'dzghalf'
/
EOF
fi


output_atm_3d=yes
#
if [[ "$output_atm_3d" == "yes" ]]; then
  #
  cat >> ${atmo_namelist} << EOF
&output_nml
 output_filename  = "${EXPNAME}_atm_3d"
 filename_format  = "<output_filename>_<levtype_l>_<datetime2>"
 filetype         = 5
 remap            = 0
 output_grid      = .TRUE.
 output_start     = "${start_date}"
 output_end       = "${end_date}"
 output_interval  = "${output_interval}"
 file_interval    = "${file_interval}"
 include_last     = .FALSE.
 ml_varlist       = 'ps'      , 'pfull'   , 'zg'      ,
                    'rho'     , 'ta'      ,
                    'ua'      , 'va'      , 'wap'     ,
                    'hus'     , 'clw'     , 'cli'     ,
                    'hur'     , 'cl'      ,
                    !'qo3_phy' ,
/
EOF
fi


output_atm_2d=yes
#
if [[ "$output_atm_2d" == "yes" ]]; then
  #
  cat >> ${atmo_namelist} << EOF
&output_nml
 output_filename  = "${EXPNAME}_atm_2d"
 filename_format  = "<output_filename>_<levtype_l>_<datetime2>"
 filetype         = 5
 remap            = 0
 output_grid      = .TRUE.
 output_start     = "${start_date}"
 output_end       = "${end_date}"
 output_interval  = "${output_interval}"
 file_interval    = "${file_interval}"
 include_last     = .FALSE.
 ml_varlist       = 'ps'      , 'psl'     ,
                    'cosmu0'  ,
                    'ts'      ,
                    'sic'     , 'sit'     ,
                    'albedo'  ,
                    'clt'     ,
                    'prlr'    , 'prls'    , 'prcr'    , 'prcs'    ,
                    'pr'      , 'prw'     , 'cllvi'   , 'clivi'   ,
                    'hfls'    , 'hfss'    , 'evspsbl' ,
                    'tauu'    , 'tauv'    ,
                    'sfcwind' , 'uas'     , 'vas'     ,
                    'tas'     , 'dew2'    ,
                    'ptp'     ,
/
EOF
fi


output_phy_3d=yes
#
if [[ "$output_phy_3d" == "yes" ]]; then
  #
  cat >> ${atmo_namelist} << EOF
&output_nml
 output_filename  = "${EXPNAME}_phy_3d"
 filename_format  = "<output_filename>_<levtype_l>_<datetime2>"
 filetype         = 5
 remap            = 0
 output_grid      = .TRUE.
 output_start     = "${start_date}"
 output_end       = "${end_date}"
 output_interval  = "${output_interval}"
 file_interval    = "${file_interval}"
 include_last     = .FALSE.
 ml_varlist       = 'ps'           , 'pfull'        , 'zg'           ,
                    'tend_ta'      , 'tend_ta_dyn'  , 'tend_ta_phy'  ,
                    'tend_ua'      , 'tend_ua_dyn'  , 'tend_ua_phy'  ,
                    'tend_va'      , 'tend_va_dyn'  , 'tend_va_phy'  ,
                    'tend_qhus'    , 'tend_qhus_dyn', 'tend_qhus_phy',
/
EOF
fi


output_trc_3d=yes
#
if [[ "$output_trc_3d" == "yes" ]]; then
  #
  cat >> ${atmo_namelist} << EOF
&output_nml
 output_filename  = "${EXPNAME}_trc_3d"
 filename_format  = "<output_filename>_<levtype_l>_<datetime2>"
 filetype         = 5
 remap            = 0
 output_grid      = .TRUE.
 output_start     = "${start_date}"
 output_end       = "${end_date}"
 output_interval  = "${output_interval}"
 file_interval    = "${file_interval}"
 include_last     = .FALSE.
 ml_varlist       = 'ps'        , 'pfull'     , 'zg'        ,
                    'mairvi_phy',
                    'mdryvi_phy',
                    'mh2ovi_phy',
                    'qhus_phy'  , 'mhusvi_phy', 'tend_mhusvi_phy',
                    'qclw_phy'  , 'mclwvi_phy', 'tend_mclwvi_phy',
                    'qcli_phy'  , 'mclivi_phy', 'tend_mclivi_phy',
                    !'qo3_phy'   , 'mo3vi_phy' , 'tend_mo3vi_phy',
/
EOF
fi

#--------------------------------------------------------------------------------------------------
